New Loadshape.Shape_1340 npts=481 minterval=60 mult=(file=day_20_profile\shape_1340.csv) useactual=true
New Loadshape.Shape_1906 npts=481 minterval=60 mult=(file=day_20_profile\shape_1906.csv) useactual=true
New Loadshape.Shape_1911 npts=481 minterval=60 mult=(file=day_20_profile\shape_1911.csv) useactual=true
New Loadshape.Shape_1912 npts=481 minterval=60 mult=(file=day_20_profile\shape_1912.csv) useactual=true
New Loadshape.Shape_1913 npts=481 minterval=60 mult=(file=day_20_profile\shape_1913.csv) useactual=true
New Loadshape.Shape_1914 npts=481 minterval=60 mult=(file=day_20_profile\shape_1914.csv) useactual=true
New Loadshape.Shape_1918 npts=481 minterval=60 mult=(file=day_20_profile\shape_1918.csv) useactual=true
New Loadshape.Shape_1924 npts=481 minterval=60 mult=(file=day_20_profile\shape_1924.csv) useactual=true
New Loadshape.Shape_1925 npts=481 minterval=60 mult=(file=day_20_profile\shape_1925.csv) useactual=true
New Loadshape.Shape_1926 npts=481 minterval=60 mult=(file=day_20_profile\shape_1926.csv) useactual=true
New Loadshape.Shape_1927 npts=481 minterval=60 mult=(file=day_20_profile\shape_1927.csv) useactual=true
New Loadshape.Shape_1928 npts=481 minterval=60 mult=(file=day_20_profile\shape_1928.csv) useactual=true
New Loadshape.Shape_1929 npts=481 minterval=60 mult=(file=day_20_profile\shape_1929.csv) useactual=true
New Loadshape.Shape_1937 npts=481 minterval=60 mult=(file=day_20_profile\shape_1937.csv) useactual=true
New Loadshape.Shape_1989 npts=481 minterval=60 mult=(file=day_20_profile\shape_1989.csv) useactual=true
New Loadshape.Shape_1994 npts=481 minterval=60 mult=(file=day_20_profile\shape_1994.csv) useactual=true
New Loadshape.Shape_2055 npts=481 minterval=60 mult=(file=day_20_profile\shape_2055.csv) useactual=true
New Loadshape.Shape_2155 npts=481 minterval=60 mult=(file=day_20_profile\shape_2155.csv) useactual=true
New Loadshape.Shape_3031 npts=481 minterval=60 mult=(file=day_20_profile\shape_3031.csv) useactual=true
New Loadshape.Shape_3032 npts=481 minterval=60 mult=(file=day_20_profile\shape_3032.csv) useactual=true
New Loadshape.Shape_3033 npts=481 minterval=60 mult=(file=day_20_profile\shape_3033.csv) useactual=true
New Loadshape.Shape_3034 npts=481 minterval=60 mult=(file=day_20_profile\shape_3034.csv) useactual=true
New Loadshape.Shape_3035 npts=481 minterval=60 mult=(file=day_20_profile\shape_3035.csv) useactual=true
New Loadshape.Shape_3036 npts=481 minterval=60 mult=(file=day_20_profile\shape_3036.csv) useactual=true
New Loadshape.Shape_3037 npts=481 minterval=60 mult=(file=day_20_profile\shape_3037.csv) useactual=true
New Loadshape.Shape_3039 npts=481 minterval=60 mult=(file=day_20_profile\shape_3039.csv) useactual=true
New Loadshape.Shape_3040 npts=481 minterval=60 mult=(file=day_20_profile\shape_3040.csv) useactual=true
New Loadshape.Shape_3041 npts=481 minterval=60 mult=(file=day_20_profile\shape_3041.csv) useactual=true
New Loadshape.Shape_3042 npts=481 minterval=60 mult=(file=day_20_profile\shape_3042.csv) useactual=true
New Loadshape.Shape_3043 npts=481 minterval=60 mult=(file=day_20_profile\shape_3043.csv) useactual=true
New Loadshape.Shape_3044 npts=481 minterval=60 mult=(file=day_20_profile\shape_3044.csv) useactual=true
New Loadshape.Shape_3045 npts=481 minterval=60 mult=(file=day_20_profile\shape_3045.csv) useactual=true
New Loadshape.Shape_3046 npts=481 minterval=60 mult=(file=day_20_profile\shape_3046.csv) useactual=true
New Loadshape.Shape_3048 npts=481 minterval=60 mult=(file=day_20_profile\shape_3048.csv) useactual=true
New Loadshape.Shape_3049 npts=481 minterval=60 mult=(file=day_20_profile\shape_3049.csv) useactual=true
New Loadshape.Shape_3050 npts=481 minterval=60 mult=(file=day_20_profile\shape_3050.csv) useactual=true
New Loadshape.Shape_3051 npts=481 minterval=60 mult=(file=day_20_profile\shape_3051.csv) useactual=true
New Loadshape.Shape_3053 npts=481 minterval=60 mult=(file=day_20_profile\shape_3053.csv) useactual=true
New Loadshape.Shape_3054 npts=481 minterval=60 mult=(file=day_20_profile\shape_3054.csv) useactual=true
New Loadshape.Shape_3055 npts=481 minterval=60 mult=(file=day_20_profile\shape_3055.csv) useactual=true
New Loadshape.Shape_3056 npts=481 minterval=60 mult=(file=day_20_profile\shape_3056.csv) useactual=true
New Loadshape.Shape_3057 npts=481 minterval=60 mult=(file=day_20_profile\shape_3057.csv) useactual=true
New Loadshape.Shape_3058 npts=481 minterval=60 mult=(file=day_20_profile\shape_3058.csv) useactual=true
New Loadshape.Shape_3059 npts=481 minterval=60 mult=(file=day_20_profile\shape_3059.csv) useactual=true
New Loadshape.Shape_3060 npts=481 minterval=60 mult=(file=day_20_profile\shape_3060.csv) useactual=true
New Loadshape.Shape_3061 npts=481 minterval=60 mult=(file=day_20_profile\shape_3061.csv) useactual=true
New Loadshape.Shape_3062 npts=481 minterval=60 mult=(file=day_20_profile\shape_3062.csv) useactual=true
New Loadshape.Shape_3063 npts=481 minterval=60 mult=(file=day_20_profile\shape_3063.csv) useactual=true
New Loadshape.Shape_3064 npts=481 minterval=60 mult=(file=day_20_profile\shape_3064.csv) useactual=true
New Loadshape.Shape_3065 npts=481 minterval=60 mult=(file=day_20_profile\shape_3065.csv) useactual=true
New Loadshape.Shape_3076 npts=481 minterval=60 mult=(file=day_20_profile\shape_3076.csv) useactual=true
New Loadshape.Shape_3079 npts=481 minterval=60 mult=(file=day_20_profile\shape_3079.csv) useactual=true
New Loadshape.Shape_3080 npts=481 minterval=60 mult=(file=day_20_profile\shape_3080.csv) useactual=true
New Loadshape.Shape_3081 npts=481 minterval=60 mult=(file=day_20_profile\shape_3081.csv) useactual=true
New Loadshape.Shape_3082 npts=481 minterval=60 mult=(file=day_20_profile\shape_3082.csv) useactual=true
New Loadshape.Shape_3084 npts=481 minterval=60 mult=(file=day_20_profile\shape_3084.csv) useactual=true
New Loadshape.Shape_3095 npts=481 minterval=60 mult=(file=day_20_profile\shape_3095.csv) useactual=true
New Loadshape.Shape_3096 npts=481 minterval=60 mult=(file=day_20_profile\shape_3096.csv) useactual=true
New Loadshape.Shape_3097 npts=481 minterval=60 mult=(file=day_20_profile\shape_3097.csv) useactual=true
New Loadshape.Shape_3098 npts=481 minterval=60 mult=(file=day_20_profile\shape_3098.csv) useactual=true
New Loadshape.Shape_3100 npts=481 minterval=60 mult=(file=day_20_profile\shape_3100.csv) useactual=true
New Loadshape.Shape_3103 npts=481 minterval=60 mult=(file=day_20_profile\shape_3103.csv) useactual=true
New Loadshape.Shape_3105 npts=481 minterval=60 mult=(file=day_20_profile\shape_3105.csv) useactual=true
New Loadshape.Shape_3106 npts=481 minterval=60 mult=(file=day_20_profile\shape_3106.csv) useactual=true
New Loadshape.Shape_3107 npts=481 minterval=60 mult=(file=day_20_profile\shape_3107.csv) useactual=true
New Loadshape.Shape_3108 npts=481 minterval=60 mult=(file=day_20_profile\shape_3108.csv) useactual=true
New Loadshape.Shape_3109 npts=481 minterval=60 mult=(file=day_20_profile\shape_3109.csv) useactual=true
New Loadshape.Shape_3110 npts=481 minterval=60 mult=(file=day_20_profile\shape_3110.csv) useactual=true
New Loadshape.Shape_3112 npts=481 minterval=60 mult=(file=day_20_profile\shape_3112.csv) useactual=true
New Loadshape.Shape_3116 npts=481 minterval=60 mult=(file=day_20_profile\shape_3116.csv) useactual=true
New Loadshape.Shape_3118 npts=481 minterval=60 mult=(file=day_20_profile\shape_3118.csv) useactual=true
New Loadshape.Shape_3119 npts=481 minterval=60 mult=(file=day_20_profile\shape_3119.csv) useactual=true
New Loadshape.Shape_3122 npts=481 minterval=60 mult=(file=day_20_profile\shape_3122.csv) useactual=true
New Loadshape.Shape_3124 npts=481 minterval=60 mult=(file=day_20_profile\shape_3124.csv) useactual=true
New Loadshape.Shape_3155 npts=481 minterval=60 mult=(file=day_20_profile\shape_3155.csv) useactual=true
New Loadshape.Shape_3156 npts=481 minterval=60 mult=(file=day_20_profile\shape_3156.csv) useactual=true
New Loadshape.Shape_3157 npts=481 minterval=60 mult=(file=day_20_profile\shape_3157.csv) useactual=true
New Loadshape.Shape_3158 npts=481 minterval=60 mult=(file=day_20_profile\shape_3158.csv) useactual=true
New Loadshape.Shape_3159 npts=481 minterval=60 mult=(file=day_20_profile\shape_3159.csv) useactual=true
New Loadshape.Shape_3160 npts=481 minterval=60 mult=(file=day_20_profile\shape_3160.csv) useactual=true
New Loadshape.Shape_3161 npts=481 minterval=60 mult=(file=day_20_profile\shape_3161.csv) useactual=true
New Loadshape.Shape_3162 npts=481 minterval=60 mult=(file=day_20_profile\shape_3162.csv) useactual=true
New Loadshape.Shape_3163 npts=481 minterval=60 mult=(file=day_20_profile\shape_3163.csv) useactual=true
New Loadshape.Shape_3164 npts=481 minterval=60 mult=(file=day_20_profile\shape_3164.csv) useactual=true
New Loadshape.Shape_3176 npts=481 minterval=60 mult=(file=day_20_profile\shape_3176.csv) useactual=true
New Loadshape.Shape_3177 npts=481 minterval=60 mult=(file=day_20_profile\shape_3177.csv) useactual=true
New Loadshape.Shape_3178 npts=481 minterval=60 mult=(file=day_20_profile\shape_3178.csv) useactual=true
New Loadshape.Shape_3179 npts=481 minterval=60 mult=(file=day_20_profile\shape_3179.csv) useactual=true
New Loadshape.Shape_3180 npts=481 minterval=60 mult=(file=day_20_profile\shape_3180.csv) useactual=true
New Loadshape.Shape_3181 npts=481 minterval=60 mult=(file=day_20_profile\shape_3181.csv) useactual=true
New Loadshape.Shape_3182 npts=481 minterval=60 mult=(file=day_20_profile\shape_3182.csv) useactual=true
New Loadshape.Shape_3183 npts=481 minterval=60 mult=(file=day_20_profile\shape_3183.csv) useactual=true
New Loadshape.Shape_3184 npts=481 minterval=60 mult=(file=day_20_profile\shape_3184.csv) useactual=true
New Loadshape.Shape_3185 npts=481 minterval=60 mult=(file=day_20_profile\shape_3185.csv) useactual=true
New Loadshape.Shape_3186 npts=481 minterval=60 mult=(file=day_20_profile\shape_3186.csv) useactual=true
New Loadshape.Shape_3187 npts=481 minterval=60 mult=(file=day_20_profile\shape_3187.csv) useactual=true
New Loadshape.Shape_3188 npts=481 minterval=60 mult=(file=day_20_profile\shape_3188.csv) useactual=true
New Loadshape.Shape_3189 npts=481 minterval=60 mult=(file=day_20_profile\shape_3189.csv) useactual=true
New Loadshape.Shape_3190 npts=481 minterval=60 mult=(file=day_20_profile\shape_3190.csv) useactual=true
New Loadshape.Shape_3191 npts=481 minterval=60 mult=(file=day_20_profile\shape_3191.csv) useactual=true
New Loadshape.Shape_3192 npts=481 minterval=60 mult=(file=day_20_profile\shape_3192.csv) useactual=true
New Loadshape.Shape_3193 npts=481 minterval=60 mult=(file=day_20_profile\shape_3193.csv) useactual=true
New Loadshape.Shape_3194 npts=481 minterval=60 mult=(file=day_20_profile\shape_3194.csv) useactual=true
New Loadshape.Shape_3195 npts=481 minterval=60 mult=(file=day_20_profile\shape_3195.csv) useactual=true
New Loadshape.Shape_3201 npts=481 minterval=60 mult=(file=day_20_profile\shape_3201.csv) useactual=true
New Loadshape.Shape_3216 npts=481 minterval=60 mult=(file=day_20_profile\shape_3216.csv) useactual=true
New Loadshape.Shape_3219 npts=481 minterval=60 mult=(file=day_20_profile\shape_3219.csv) useactual=true
New Loadshape.Shape_3321 npts=481 minterval=60 mult=(file=day_20_profile\shape_3321.csv) useactual=true
New Loadshape.Shape_3812 npts=481 minterval=60 mult=(file=day_20_profile\shape_3812.csv) useactual=true
New Loadshape.Shape_4736 npts=481 minterval=60 mult=(file=day_20_profile\shape_4736.csv) useactual=true
New Loadshape.Shape_4738 npts=481 minterval=60 mult=(file=day_20_profile\shape_4738.csv) useactual=true
New Loadshape.Shape_4850 npts=481 minterval=60 mult=(file=day_20_profile\shape_4850.csv) useactual=true
New Loadshape.Shape_4872 npts=481 minterval=60 mult=(file=day_20_profile\shape_4872.csv) useactual=true
New Loadshape.Shape_4885 npts=481 minterval=60 mult=(file=day_20_profile\shape_4885.csv) useactual=true
New Loadshape.Shape_4886 npts=481 minterval=60 mult=(file=day_20_profile\shape_4886.csv) useactual=true
New Loadshape.Shape_4890 npts=481 minterval=60 mult=(file=day_20_profile\shape_4890.csv) useactual=true
New Loadshape.Shape_4914 npts=481 minterval=60 mult=(file=day_20_profile\shape_4914.csv) useactual=true
New Loadshape.Shape_4916 npts=481 minterval=60 mult=(file=day_20_profile\shape_4916.csv) useactual=true
New Loadshape.Shape_4931 npts=481 minterval=60 mult=(file=day_20_profile\shape_4931.csv) useactual=true
New Loadshape.Shape_4934 npts=481 minterval=60 mult=(file=day_20_profile\shape_4934.csv) useactual=true
New Loadshape.Shape_4935 npts=481 minterval=60 mult=(file=day_20_profile\shape_4935.csv) useactual=true
New Loadshape.Shape_4936 npts=481 minterval=60 mult=(file=day_20_profile\shape_4936.csv) useactual=true
New Loadshape.Shape_4937 npts=481 minterval=60 mult=(file=day_20_profile\shape_4937.csv) useactual=true
New Loadshape.Shape_4938 npts=481 minterval=60 mult=(file=day_20_profile\shape_4938.csv) useactual=true
New Loadshape.Shape_4939 npts=481 minterval=60 mult=(file=day_20_profile\shape_4939.csv) useactual=true
New Loadshape.Shape_4940 npts=481 minterval=60 mult=(file=day_20_profile\shape_4940.csv) useactual=true
New Loadshape.Shape_4941 npts=481 minterval=60 mult=(file=day_20_profile\shape_4941.csv) useactual=true
New Loadshape.Shape_4942 npts=481 minterval=60 mult=(file=day_20_profile\shape_4942.csv) useactual=true
New Loadshape.Shape_4943 npts=481 minterval=60 mult=(file=day_20_profile\shape_4943.csv) useactual=true
New Loadshape.Shape_4945 npts=481 minterval=60 mult=(file=day_20_profile\shape_4945.csv) useactual=true
New Loadshape.Shape_4946 npts=481 minterval=60 mult=(file=day_20_profile\shape_4946.csv) useactual=true
New Loadshape.Shape_4947 npts=481 minterval=60 mult=(file=day_20_profile\shape_4947.csv) useactual=true
New Loadshape.Shape_4948 npts=481 minterval=60 mult=(file=day_20_profile\shape_4948.csv) useactual=true
New Loadshape.Shape_4949 npts=481 minterval=60 mult=(file=day_20_profile\shape_4949.csv) useactual=true
New Loadshape.Shape_4952 npts=481 minterval=60 mult=(file=day_20_profile\shape_4952.csv) useactual=true
New Loadshape.Shape_4971 npts=481 minterval=60 mult=(file=day_20_profile\shape_4971.csv) useactual=true
New Loadshape.Shape_4973 npts=481 minterval=60 mult=(file=day_20_profile\shape_4973.csv) useactual=true
New Loadshape.Shape_4975 npts=481 minterval=60 mult=(file=day_20_profile\shape_4975.csv) useactual=true
New Loadshape.Shape_6053 npts=481 minterval=60 mult=(file=day_20_profile\shape_6053.csv) useactual=true
New Loadshape.Shape_6059 npts=481 minterval=60 mult=(file=day_20_profile\shape_6059.csv) useactual=true
New Loadshape.Shape_6060 npts=481 minterval=60 mult=(file=day_20_profile\shape_6060.csv) useactual=true
New Loadshape.Shape_6154 npts=481 minterval=60 mult=(file=day_20_profile\shape_6154.csv) useactual=true
New Loadshape.Shape_6155 npts=481 minterval=60 mult=(file=day_20_profile\shape_6155.csv) useactual=true
New Loadshape.Shape_6158 npts=481 minterval=60 mult=(file=day_20_profile\shape_6158.csv) useactual=true
New Loadshape.Shape_6179 npts=481 minterval=60 mult=(file=day_20_profile\shape_6179.csv) useactual=true
New Loadshape.Shape_6272 npts=481 minterval=60 mult=(file=day_20_profile\shape_6272.csv) useactual=true
New Loadshape.Shape_7901 npts=481 minterval=60 mult=(file=day_20_profile\shape_7901.csv) useactual=true
New Loadshape.Shape_7921 npts=481 minterval=60 mult=(file=day_20_profile\shape_7921.csv) useactual=true
New Loadshape.Shape_7923 npts=481 minterval=60 mult=(file=day_20_profile\shape_7923.csv) useactual=true
New Loadshape.Shape_7932 npts=481 minterval=60 mult=(file=day_20_profile\shape_7932.csv) useactual=true
New Loadshape.Shape_7973 npts=481 minterval=60 mult=(file=day_20_profile\shape_7973.csv) useactual=true
New Loadshape.Shape_7975 npts=481 minterval=60 mult=(file=day_20_profile\shape_7975.csv) useactual=true
New Loadshape.Shape_7994 npts=481 minterval=60 mult=(file=day_20_profile\shape_7994.csv) useactual=true
New Loadshape.Shape_7995 npts=481 minterval=60 mult=(file=day_20_profile\shape_7995.csv) useactual=true
New Loadshape.Shape_7996 npts=481 minterval=60 mult=(file=day_20_profile\shape_7996.csv) useactual=true
New Loadshape.Shape_7998 npts=481 minterval=60 mult=(file=day_20_profile\shape_7998.csv) useactual=true
New Loadshape.Shape_7999 npts=481 minterval=60 mult=(file=day_20_profile\shape_7999.csv) useactual=true
New Loadshape.Shape_8000 npts=481 minterval=60 mult=(file=day_20_profile\shape_8000.csv) useactual=true
New Loadshape.Shape_8001 npts=481 minterval=60 mult=(file=day_20_profile\shape_8001.csv) useactual=true
New Loadshape.Shape_8002 npts=481 minterval=60 mult=(file=day_20_profile\shape_8002.csv) useactual=true
New Loadshape.Shape_8003 npts=481 minterval=60 mult=(file=day_20_profile\shape_8003.csv) useactual=true
New Loadshape.Shape_8004 npts=481 minterval=60 mult=(file=day_20_profile\shape_8004.csv) useactual=true
New Loadshape.Shape_8005 npts=481 minterval=60 mult=(file=day_20_profile\shape_8005.csv) useactual=true
New Loadshape.Shape_8006 npts=481 minterval=60 mult=(file=day_20_profile\shape_8006.csv) useactual=true
New Loadshape.Shape_8007 npts=481 minterval=60 mult=(file=day_20_profile\shape_8007.csv) useactual=true
New Loadshape.Shape_8008 npts=481 minterval=60 mult=(file=day_20_profile\shape_8008.csv) useactual=true
New Loadshape.Shape_8009 npts=481 minterval=60 mult=(file=day_20_profile\shape_8009.csv) useactual=true
New Loadshape.Shape_8010 npts=481 minterval=60 mult=(file=day_20_profile\shape_8010.csv) useactual=true
New Loadshape.Shape_8011 npts=481 minterval=60 mult=(file=day_20_profile\shape_8011.csv) useactual=true
New Loadshape.Shape_8012 npts=481 minterval=60 mult=(file=day_20_profile\shape_8012.csv) useactual=true
New Loadshape.Shape_8013 npts=481 minterval=60 mult=(file=day_20_profile\shape_8013.csv) useactual=true
New Loadshape.Shape_8014 npts=481 minterval=60 mult=(file=day_20_profile\shape_8014.csv) useactual=true
New Loadshape.Shape_8016 npts=481 minterval=60 mult=(file=day_20_profile\shape_8016.csv) useactual=true
New Loadshape.Shape_8025 npts=481 minterval=60 mult=(file=day_20_profile\shape_8025.csv) useactual=true
New Loadshape.Shape_8027 npts=481 minterval=60 mult=(file=day_20_profile\shape_8027.csv) useactual=true
New Loadshape.Shape_8028 npts=481 minterval=60 mult=(file=day_20_profile\shape_8028.csv) useactual=true
New Loadshape.Shape_8034 npts=481 minterval=60 mult=(file=day_20_profile\shape_8034.csv) useactual=true
New Loadshape.Shape_8038 npts=481 minterval=60 mult=(file=day_20_profile\shape_8038.csv) useactual=true
New Loadshape.Shape_8042 npts=481 minterval=60 mult=(file=day_20_profile\shape_8042.csv) useactual=true
New Loadshape.Shape_8045 npts=481 minterval=60 mult=(file=day_20_profile\shape_8045.csv) useactual=true
New Loadshape.Shape_8046 npts=481 minterval=60 mult=(file=day_20_profile\shape_8046.csv) useactual=true
