clear
New Circuit.RDN4 basekv=10 pu=1.0
edit Vsource.Source bus1=source basekv=10 pu=1.0001 phases=3 ISC3=9000  ISC1=5000
edit Vsource.Source bus1=source basekv=10 pu=1.0001 phases=3 ISC3=9000  ISC1=5000
! Transformer data 
new transformer.12 buses = [Source.1.2.3.0 2562.1.2.3.0] phases=3 windings=2 XHL = 4.0 %LoadLoss=1.0794 Conns=[WYE WYE] kVs=[10.0 0.4] kVAs=[630000.0 630000.0] 
new transformer.42 buses = [Source.1.2.3.0 2562.1.2.3.0] phases=3 windings=2 XHL = 4.0 %LoadLoss=1.0794 Conns=[WYE WYE] kVs=[10.0 0.4] kVAs=[630000.0 630000.0] 
! Linecodes data 
new linecode.powersystem_db_lv_NAYY_4x50_SE nphases=3 
~ rmatrix = [0.642 | 0.0 0.642 | 0.0 0.0 0.642] 
~ xmatrix = [0.083 | 0.0 0.083 | 0.0 0.0 0.083] 
~ cmatrix = [210.0 | 0.0 210.0 | 0.0 0.0 210.0] 
new linecode.powersystem_db_mv_NA2XS2Y_1x120_RM/25_6/10_kV nphases=3 
~ rmatrix = [0.253 | 0.0 0.253 | 0.0 0.0 0.253] 
~ xmatrix = [0.113 | 0.0 0.113 | 0.0 0.0 0.113] 
~ cmatrix = [340.0 | 0.0 340.0 | 0.0 0.0 340.0] 
new linecode.powersystem_db_mv_NA2XS2Y_1x185_RM/25_6/10_kV nphases=3 
~ rmatrix = [0.161 | 0.0 0.161 | 0.0 0.0 0.161] 
~ xmatrix = [0.11 | 0.0 0.11 | 0.0 0.0 0.11] 
~ cmatrix = [406.0 | 0.0 406.0 | 0.0 0.0 406.0] 
new linecode.powersystem_db_lv_NAYY_4x120_SE nphases=3 
~ rmatrix = [0.225 | 0.0 0.225 | 0.0 0.0 0.225] 
~ xmatrix = [0.08 | 0.0 0.08 | 0.0 0.0 0.08] 
~ cmatrix = [264.0 | 0.0 264.0 | 0.0 0.0 264.0] 
new linecode.powersystem_db_mv_NA2XS2Y_1x240_RM/25_6/10_kV nphases=3 
~ rmatrix = [0.122 | 0.0 0.122 | 0.0 0.0 0.122] 
~ xmatrix = [0.105 | 0.0 0.105 | 0.0 0.0 0.105] 
~ cmatrix = [456.0 | 0.0 456.0 | 0.0 0.0 456.0] 
new linecode.powersystem_db_lv_NAYY_4x150_SE nphases=3 
~ rmatrix = [0.208 | 0.0 0.208 | 0.0 0.0 0.208] 
~ xmatrix = [0.08 | 0.0 0.08 | 0.0 0.0 0.08] 
~ cmatrix = [261.0 | 0.0 261.0 | 0.0 0.0 261.0] 
new linecode.powersystem_db_mv_NA2XS2Y_1x95_RM/25_6/10_kV nphases=3 
~ rmatrix = [0.313 | 0.0 0.313 | 0.0 0.0 0.313] 
~ xmatrix = [0.123 | 0.0 0.123 | 0.0 0.0 0.123] 
~ cmatrix = [315.0 | 0.0 315.0 | 0.0 0.0 315.0] 
new linecode.powersystem_db_lv_NA2XY_4x240_SE nphases=3 
~ rmatrix = [0.125 | 0.0 0.125 | 0.0 0.0 0.125] 
~ xmatrix = [0.079 | 0.0 0.079 | 0.0 0.0 0.079] 
~ cmatrix = [0.0 | 0.0 0.0 | 0.0 0.0 0.0] 
new linecode.powersystem_db_mv_NA2XS2Y_1x70_RM/25_6/10_kV nphases=3 
~ rmatrix = [0.443 | 0.0 0.443 | 0.0 0.0 0.443] 
~ xmatrix = [0.123 | 0.0 0.123 | 0.0 0.0 0.123] 
~ cmatrix = [280.0 | 0.0 280.0 | 0.0 0.0 280.0] 
! Lines data 
new line.1107 bus1=1542.1.2.3 bus2=1243.1.2.3  phases=3 linecode=powersystem_db_lv_NAYY_4x150_SE length = 0.002957926  
new line.1144 bus1=1582.1.2.3 bus2=583.1.2.3  phases=3 linecode=powersystem_db_lv_NAYY_4x50_SE length = 0.015002732  
new line.2494 bus1=1928.1.2.3 bus2=2511.1.2.3  phases=3 linecode=powersystem_db_lv_NAYY_4x50_SE length = 0.006610027  
new line.2108 bus1=340.1.2.3 bus2=2289.1.2.3  phases=3 linecode=powersystem_db_lv_NAYY_4x50_SE length = 0.023434005  
new line.719 bus1=802.1.2.3 bus2=1037.1.2.3  phases=3 linecode=powersystem_db_lv_NA2XY_4x240_SE length = 0.006680264  
new line.2392 bus1=2453.1.2.3 bus2=1935.1.2.3  phases=3 linecode=powersystem_db_lv_NA2XY_4x240_SE length = 0.005238272  
new line.858 bus1=991.1.2.3 bus2=1250.1.2.3  phases=3 linecode=powersystem_db_lv_NA2XY_4x240_SE length = 0.006091586  
new line.2350 bus1=2429.1.2.3 bus2=2251.1.2.3  phases=3 linecode=powersystem_db_lv_NA2XY_4x240_SE length = 0.001518098  
new line.2802 bus1=1583.1.2.3 bus2=891.1.2.3  phases=3 linecode=powersystem_db_lv_NAYY_4x50_SE length = 0.007957472  
new line.2780 bus1=2294.1.2.3 bus2=1907.1.2.3  phases=3 linecode=powersystem_db_lv_NAYY_4x50_SE length = 0.013435813  
new line.3042 bus1=2246.1.2.3 bus2=1617.1.2.3  phases=3 linecode=powersystem_db_lv_NAYY_4x50_SE length = 0.022485934  
new line.73 bus1=527.1.2.3 bus2=165.1.2.3  phases=3 linecode=powersystem_db_lv_NAYY_4x50_SE length = 0.000921499  
new line.3082 bus1=2562.1.2.3 bus2=249.1.2.3  phases=3 linecode=powersystem_db_lv_NAYY_4x150_SE length = 0.001685724  
new line.1743 bus1=2050.1.2.3 bus2=89.1.2.3  phases=3 linecode=powersystem_db_lv_NAYY_4x50_SE length = 0.001918815  
new line.1077 bus1=1507.1.2.3 bus2=1366.1.2.3  phases=3 linecode=powersystem_db_lv_NAYY_4x50_SE length = 0.012511118  
new line.3006 bus1=1014.1.2.3 bus2=2093.1.2.3  phases=3 linecode=powersystem_db_lv_NAYY_4x50_SE length = 0.006149432  
new line.1293 bus1=1714.1.2.3 bus2=1047.1.2.3  phases=3 linecode=powersystem_db_lv_NAYY_4x50_SE length = 0.002727601  
new line.665 bus1=923.1.2.3 bus2=92.1.2.3  phases=3 linecode=powersystem_db_lv_NAYY_4x120_SE length = 0.01244887  
new line.86 bus1=352.1.2.3 bus2=384.1.2.3  phases=3 linecode=powersystem_db_lv_NA2XY_4x240_SE length = 0.007977042  
new line.544 bus1=627.1.2.3 bus2=733.1.2.3  phases=3 linecode=powersystem_db_lv_NAYY_4x50_SE length = 0.102286825  
new line.2781 bus1=2295.1.2.3 bus2=2294.1.2.3  phases=3 linecode=powersystem_db_lv_NAYY_4x50_SE length = 0.006599512  
new line.1253 bus1=1346.1.2.3 bus2=1675.1.2.3  phases=3 linecode=powersystem_db_lv_NAYY_4x50_SE length = 0.005134468  
new line.1266 bus1=1684.1.2.3 bus2=1346.1.2.3  phases=3 linecode=powersystem_db_lv_NAYY_4x50_SE length = 0.036734  
new line.2390 bus1=2191.1.2.3 bus2=2452.1.2.3  phases=3 linecode=powersystem_db_lv_NAYY_4x150_SE length = 0.007008531  
new line.2934 bus1=816.1.2.3 bus2=1929.1.2.3  phases=3 linecode=powersystem_db_lv_NAYY_4x50_SE length = 0.006577755  
new line.1932 bus1=2176.1.2.3 bus2=880.1.2.3  phases=3 linecode=powersystem_db_lv_NAYY_4x50_SE length = 0.004776915  
new line.2057 bus1=144.1.2.3 bus2=2257.1.2.3  phases=3 linecode=powersystem_db_lv_NAYY_4x50_SE length = 0.013499771  
new line.2076 bus1=1941.1.2.3 bus2=2267.1.2.3  phases=3 linecode=powersystem_db_lv_NAYY_4x50_SE length = 0.007393118  
new line.75 bus1=687.1.2.3 bus2=108.1.2.3  phases=3 linecode=powersystem_db_lv_NAYY_4x50_SE length = 0.090703759  
new line.1874 bus1=1250.1.2.3 bus2=2139.1.2.3  phases=3 linecode=powersystem_db_lv_NA2XY_4x240_SE length = 0.005986995  
new line.2859 bus1=1736.1.2.3 bus2=402.1.2.3  phases=3 linecode=powersystem_db_lv_NAYY_4x120_SE length = 0.011497789  
new line.637 bus1=527.1.2.3 bus2=865.1.2.3  phases=3 linecode=powersystem_db_lv_NAYY_4x50_SE length = 0.053115589  
new line.2884 bus1=472.1.2.3 bus2=527.1.2.3  phases=3 linecode=powersystem_db_lv_NAYY_4x150_SE length = 0.008473912  
new line.2011 bus1=2224.1.2.3 bus2=1427.1.2.3  phases=3 linecode=powersystem_db_lv_NAYY_4x150_SE length = 0.021498526  
new line.82 bus1=731.1.2.3 bus2=264.1.2.3  phases=3 linecode=powersystem_db_lv_NAYY_4x50_SE length = 0.001265079  
new line.2762 bus1=1292.1.2.3 bus2=1481.1.2.3  phases=3 linecode=powersystem_db_lv_NA2XY_4x240_SE length = 0.015227309  
new line.2702 bus1=1509.1.2.3 bus2=99.1.2.3  phases=3 linecode=powersystem_db_lv_NAYY_4x120_SE length = 0.026910377  
new line.1673 bus1=1998.1.2.3 bus2=309.1.2.3  phases=3 linecode=powersystem_db_lv_NAYY_4x50_SE length = 0.034253857  
new line.2873 bus1=749.1.2.3 bus2=2451.1.2.3  phases=3 linecode=powersystem_db_lv_NAYY_4x120_SE length = 0.031447407  
new line.666 bus1=402.1.2.3 bus2=923.1.2.3  phases=3 linecode=powersystem_db_lv_NAYY_4x120_SE length = 0.009353613  
new line.77 bus1=733.1.2.3 bus2=130.1.2.3  phases=3 linecode=powersystem_db_lv_NAYY_4x50_SE length = 0.075297329  
new line.1473 bus1=1853.1.2.3 bus2=991.1.2.3  phases=3 linecode=powersystem_db_lv_NA2XY_4x240_SE length = 0.009768211  
new line.71 bus1=121.1.2.3 bus2=105.1.2.3  phases=3 linecode=powersystem_db_lv_NAYY_4x120_SE length = 0.002342305  
new line.2382 bus1=2163.1.2.3 bus2=2448.1.2.3  phases=3 linecode=powersystem_db_lv_NA2XY_4x240_SE length = 0.004099233  
new line.685 bus1=973.1.2.3 bus2=499.1.2.3  phases=3 linecode=powersystem_db_lv_NAYY_4x50_SE length = 0.057393276  
new line.1036 bus1=383.1.2.3 bus2=1468.1.2.3  phases=3 linecode=powersystem_db_lv_NAYY_4x50_SE length = 0.002018894  
new line.2874 bus1=2452.1.2.3 bus2=1749.1.2.3  phases=3 linecode=powersystem_db_lv_NAYY_4x150_SE length = 0.007099992  
new line.2964 bus1=839.1.2.3 bus2=103.1.2.3  phases=3 linecode=powersystem_db_lv_NAYY_4x50_SE length = 0.007172889  
new line.1632 bus1=1974.1.2.3 bus2=442.1.2.3  phases=3 linecode=powersystem_db_lv_NAYY_4x120_SE length = 0.009578446  
new line.1712 bus1=875.1.2.3 bus2=2029.1.2.3  phases=3 linecode=powersystem_db_lv_NAYY_4x120_SE length = 0.004703206  
new line.2847 bus1=2399.1.2.3 bus2=1941.1.2.3  phases=3 linecode=powersystem_db_lv_NAYY_4x50_SE length = 0.015580272  
new line.1634 bus1=1071.1.2.3 bus2=1975.1.2.3  phases=3 linecode=powersystem_db_lv_NAYY_4x50_SE length = 0.003535721  
new line.958 bus1=870.1.2.3 bus2=1379.1.2.3  phases=3 linecode=powersystem_db_lv_NAYY_4x50_SE length = 0.006123648  
new line.79 bus1=2562.1.2.3 bus2=249.1.2.3  phases=3 linecode=powersystem_db_lv_NAYY_4x150_SE length = 0.001685724  
new line.1202 bus1=1514.1.2.3 bus2=1636.1.2.3  phases=3 linecode=powersystem_db_lv_NAYY_4x50_SE length = 0.011282458  
new line.1570 bus1=1616.1.2.3 bus2=1928.1.2.3  phases=3 linecode=powersystem_db_lv_NAYY_4x50_SE length = 0.020102919  
new line.1864 bus1=2132.1.2.3 bus2=1135.1.2.3  phases=3 linecode=powersystem_db_lv_NA2XY_4x240_SE length = 0.009369367  
new line.388 bus1=434.1.2.3 bus2=472.1.2.3  phases=3 linecode=powersystem_db_lv_NA2XY_4x240_SE length = 0.018486667  
new line.2893 bus1=730.1.2.3 bus2=611.1.2.3  phases=3 linecode=powersystem_db_lv_NAYY_4x50_SE length = 0.016674277  
new line.2858 bus1=965.1.2.3 bus2=1736.1.2.3  phases=3 linecode=powersystem_db_lv_NAYY_4x120_SE length = 0.015120033  
new line.2143 bus1=1423.1.2.3 bus2=2310.1.2.3  phases=3 linecode=powersystem_db_lv_NA2XY_4x240_SE length = 0.005500769  
new line.2783 bus1=391.1.2.3 bus2=121.1.2.3  phases=3 linecode=powersystem_db_lv_NAYY_4x150_SE length = 0.012276123  
new line.2944 bus1=121.1.2.3 bus2=798.1.2.3  phases=3 linecode=powersystem_db_lv_NAYY_4x120_SE length = 0.015936323  
new line.389 bus1=730.1.2.3 bus2=611.1.2.3  phases=3 linecode=powersystem_db_lv_NAYY_4x50_SE length = 0.016674277  
new line.2796 bus1=1544.1.2.3 bus2=123.1.2.3  phases=3 linecode=powersystem_db_lv_NAYY_4x120_SE length = 0.002928124  
new line.2294 bus1=917.1.2.3 bus2=2399.1.2.3  phases=3 linecode=powersystem_db_lv_NAYY_4x50_SE length = 0.003760393  
new line.2937 bus1=787.1.2.3 bus2=565.1.2.3  phases=3 linecode=powersystem_db_lv_NAYY_4x150_SE length = 0.016389892  
new line.3032 bus1=1403.1.2.3 bus2=2191.1.2.3  phases=3 linecode=powersystem_db_lv_NAYY_4x150_SE length = 0.005036597  
new line.3010 bus1=1144.1.2.3 bus2=917.1.2.3  phases=3 linecode=powersystem_db_lv_NAYY_4x50_SE length = 0.024061722  
new line.2166 bus1=441.1.2.3 bus2=2323.1.2.3  phases=3 linecode=powersystem_db_lv_NAYY_4x120_SE length = 0.001231891  
new line.2801 bus1=2267.1.2.3 bus2=2315.1.2.3  phases=3 linecode=powersystem_db_lv_NAYY_4x50_SE length = 0.012979558  
new line.2938 bus1=776.1.2.3 bus2=787.1.2.3  phases=3 linecode=powersystem_db_lv_NAYY_4x150_SE length = 0.049179252  
new line.46 bus1=749.1.2.3 bus2=139.1.2.3  phases=3 linecode=powersystem_db_lv_NAYY_4x120_SE length = 0.000785581  
new line.974 bus1=121.1.2.3 bus2=1403.1.2.3  phases=3 linecode=powersystem_db_lv_NAYY_4x150_SE length = 0.037735247  
new line.1414 bus1=1585.1.2.3 bus2=1805.1.2.3  phases=3 linecode=powersystem_db_lv_NAYY_4x50_SE length = 0.002515222  
new line.1875 bus1=2139.1.2.3 bus2=900.1.2.3  phases=3 linecode=powersystem_db_lv_NA2XY_4x240_SE length = 0.005112798  
new line.2955 bus1=1971.1.2.3 bus2=922.1.2.3  phases=3 linecode=powersystem_db_lv_NAYY_4x50_SE length = 0.001049327  
new line.78 bus1=309.1.2.3 bus2=702.1.2.3  phases=3 linecode=powersystem_db_lv_NAYY_4x50_SE length = 0.002501087  
new line.990 bus1=854.1.2.3 bus2=1421.1.2.3  phases=3 linecode=powersystem_db_lv_NAYY_4x50_SE length = 0.015165086  
new line.72 bus1=165.1.2.3 bus2=730.1.2.3  phases=3 linecode=powersystem_db_lv_NAYY_4x50_SE length = 0.010389106  
new line.1431 bus1=1487.1.2.3 bus2=1819.1.2.3  phases=3 linecode=powersystem_db_lv_NAYY_4x50_SE length = 0.01234673  
new line.2218 bus1=2356.1.2.3 bus2=1616.1.2.3  phases=3 linecode=powersystem_db_lv_NAYY_4x50_SE length = 0.003981219  
new line.2326 bus1=2209.1.2.3 bus2=2417.1.2.3  phases=3 linecode=powersystem_db_lv_NAYY_4x50_SE length = 0.002380348  
new line.579 bus1=121.1.2.3 bus2=798.1.2.3  phases=3 linecode=powersystem_db_lv_NAYY_4x120_SE length = 0.015936323  
new line.2982 bus1=2030.1.2.3 bus2=1906.1.2.3  phases=3 linecode=powersystem_db_lv_NAYY_4x50_SE length = 0.019757939  
new line.1257 bus1=1122.1.2.3 bus2=1679.1.2.3  phases=3 linecode=powersystem_db_lv_NAYY_4x50_SE length = 0.008349237  
new line.707 bus1=861.1.2.3 bus2=1018.1.2.3  phases=3 linecode=powersystem_db_lv_NAYY_4x120_SE length = 0.022796885  
new line.2782 bus1=390.1.2.3 bus2=391.1.2.3  phases=3 linecode=powersystem_db_lv_NAYY_4x120_SE length = 0.027577949  
new line.3044 bus1=1451.1.2.3 bus2=839.1.2.3  phases=3 linecode=powersystem_db_lv_NAYY_4x50_SE length = 0.054485089  
new line.588 bus1=777.1.2.3 bus2=810.1.2.3  phases=3 linecode=powersystem_db_lv_NAYY_4x50_SE length = 0.016249894  
new line.1327 bus1=1737.1.2.3 bus2=1691.1.2.3  phases=3 linecode=powersystem_db_lv_NAYY_4x50_SE length = 0.008709478  
new line.2786 bus1=527.1.2.3 bus2=165.1.2.3  phases=3 linecode=powersystem_db_lv_NAYY_4x50_SE length = 0.000921499  
new line.354 bus1=565.1.2.3 bus2=749.1.2.3  phases=3 linecode=powersystem_db_lv_NAYY_4x120_SE length = 0.007910206  
new line.299 bus1=740.1.2.3 bus2=477.1.2.3  phases=3 linecode=powersystem_db_lv_NAYY_4x50_SE length = 0.056301101  
new line.3026 bus1=1270.1.2.3 bus2=1292.1.2.3  phases=3 linecode=powersystem_db_lv_NA2XY_4x240_SE length = 0.006944716  
new line.677 bus1=391.1.2.3 bus2=965.1.2.3  phases=3 linecode=powersystem_db_lv_NAYY_4x120_SE length = 0.001167149  
new line.1044 bus1=1269.1.2.3 bus2=1477.1.2.3  phases=3 linecode=powersystem_db_lv_NAYY_4x120_SE length = 0.010522979  
new line.2775 bus1=2276.1.2.3 bus2=777.1.2.3  phases=3 linecode=powersystem_db_lv_NAYY_4x50_SE length = 0.019340706  
new line.1627 bus1=1971.1.2.3 bus2=922.1.2.3  phases=3 linecode=powersystem_db_lv_NAYY_4x50_SE length = 0.001049327  
new line.2391 bus1=2272.1.2.3 bus2=2453.1.2.3  phases=3 linecode=powersystem_db_lv_NA2XY_4x240_SE length = 0.010193559  
new line.1095 bus1=383.1.2.3 bus2=1531.1.2.3  phases=3 linecode=powersystem_db_lv_NAYY_4x50_SE length = 0.008685008  
new line.2792 bus1=2562.1.2.3 bus2=249.1.2.3  phases=3 linecode=powersystem_db_lv_NAYY_4x150_SE length = 0.001685724  
new line.1111 bus1=1544.1.2.3 bus2=123.1.2.3  phases=3 linecode=powersystem_db_lv_NAYY_4x120_SE length = 0.002928124  
new line.2967 bus1=434.1.2.3 bus2=861.1.2.3  phases=3 linecode=powersystem_db_lv_NAYY_4x120_SE length = 0.042557414  
new line.595 bus1=730.1.2.3 bus2=819.1.2.3  phases=3 linecode=powersystem_db_lv_NAYY_4x50_SE length = 0.01888927  
new line.2035 bus1=1037.1.2.3 bus2=2241.1.2.3  phases=3 linecode=powersystem_db_lv_NA2XY_4x240_SE length = 0.027916608  
new line.2932 bus1=249.1.2.3 bus2=248.1.2.3  phases=3 linecode=powersystem_db_lv_NAYY_4x150_SE length = 0.003184297  
new line.2951 bus1=165.1.2.3 bus2=627.1.2.3  phases=3 linecode=powersystem_db_lv_NAYY_4x50_SE length = 0.009907814  
new line.2180 bus1=2332.1.2.3 bus2=2144.1.2.3  phases=3 linecode=powersystem_db_lv_NA2XY_4x240_SE length = 0.010844403  
new line.1462 bus1=1842.1.2.3 bus2=1841.1.2.3  phases=3 linecode=powersystem_db_lv_NAYY_4x150_SE length = 0.004777407  
new line.794 bus1=865.1.2.3 bus2=1159.1.2.3  phases=3 linecode=powersystem_db_lv_NAYY_4x50_SE length = 0.005630497  
new line.1897 bus1=2152.1.2.3 bus2=1144.1.2.3  phases=3 linecode=powersystem_db_lv_NAYY_4x50_SE length = 0.012225129  
new line.2708 bus1=2029.1.2.3 bus2=1165.1.2.3  phases=3 linecode=powersystem_db_lv_NAYY_4x120_SE length = 0.004000306  
new line.2156 bus1=2318.1.2.3 bus2=2004.1.2.3  phases=3 linecode=powersystem_db_lv_NAYY_4x50_SE length = 0.019047862  
new line.2899 bus1=1487.1.2.3 bus2=1819.1.2.3  phases=3 linecode=powersystem_db_lv_NAYY_4x50_SE length = 0.01234673  
new line.855 bus1=441.1.2.3 bus2=1247.1.2.3  phases=3 linecode=powersystem_db_lv_NA2XY_4x240_SE length = 0.009387366  
new line.1948 bus1=472.1.2.3 bus2=2188.1.2.3  phases=3 linecode=powersystem_db_lv_NAYY_4x150_SE length = 0.023340392  
new line.747 bus1=1047.1.2.3 bus2=1084.1.2.3  phases=3 linecode=powersystem_db_lv_NAYY_4x50_SE length = 0.005613854  
new line.1252 bus1=1675.1.2.3 bus2=1409.1.2.3  phases=3 linecode=powersystem_db_lv_NAYY_4x50_SE length = 0.042850504  
new line.1598 bus1=1951.1.2.3 bus2=1320.1.2.3  phases=3 linecode=powersystem_db_lv_NAYY_4x50_SE length = 0.006118194  
new line.3020 bus1=165.1.2.3 bus2=2142.1.2.3  phases=3 linecode=powersystem_db_lv_NAYY_4x50_SE length = 0.006702076  
new line.2797 bus1=402.1.2.3 bus2=1544.1.2.3  phases=3 linecode=powersystem_db_lv_NAYY_4x120_SE length = 0.022978814  
new line.2115 bus1=2294.1.2.3 bus2=1907.1.2.3  phases=3 linecode=powersystem_db_lv_NAYY_4x50_SE length = 0.013435813  
new line.1841 bus1=2116.1.2.3 bus2=1348.1.2.3  phases=3 linecode=powersystem_db_lv_NAYY_4x120_SE length = 0.023264328  
new line.1294 bus1=1379.1.2.3 bus2=1714.1.2.3  phases=3 linecode=powersystem_db_lv_NAYY_4x50_SE length = 0.004859145  
new line.1146 bus1=1209.1.2.3 bus2=1583.1.2.3  phases=3 linecode=powersystem_db_lv_NAYY_4x50_SE length = 0.011532973  
new line.1300 bus1=92.1.2.3 bus2=1718.1.2.3  phases=3 linecode=powersystem_db_lv_NAYY_4x120_SE length = 0.001030097  
new line.2861 bus1=1737.1.2.3 bus2=1691.1.2.3  phases=3 linecode=powersystem_db_lv_NAYY_4x50_SE length = 0.008709478  
new line.758 bus1=900.1.2.3 bus2=1108.1.2.3  phases=3 linecode=powersystem_db_lv_NA2XY_4x240_SE length = 0.00374983  
new line.2283 bus1=2393.1.2.3 bus2=1122.1.2.3  phases=3 linecode=powersystem_db_lv_NAYY_4x50_SE length = 0.01708403  
new line.2354 bus1=2431.1.2.3 bus2=1951.1.2.3  phases=3 linecode=powersystem_db_lv_NAYY_4x50_SE length = 0.00530003  
new line.1944 bus1=2186.1.2.3 bus2=1932.1.2.3  phases=3 linecode=powersystem_db_lv_NA2XY_4x240_SE length = 0.009605237  
new line.1539 bus1=1906.1.2.3 bus2=973.1.2.3  phases=3 linecode=powersystem_db_lv_NAYY_4x50_SE length = 0.010994478  
new line.557 bus1=193.1.2.3 bus2=775.1.2.3  phases=3 linecode=powersystem_db_lv_NA2XY_4x240_SE length = 0.04514502  
new line.2349 bus1=1935.1.2.3 bus2=2429.1.2.3  phases=3 linecode=powersystem_db_lv_NA2XY_4x240_SE length = 0.01173426  
new line.1672 bus1=310.1.2.3 bus2=1998.1.2.3  phases=3 linecode=powersystem_db_lv_NAYY_4x50_SE length = 0.03639944  
new line.1203 bus1=1636.1.2.3 bus2=1520.1.2.3  phases=3 linecode=powersystem_db_lv_NAYY_4x50_SE length = 0.006853626  
new line.1056 bus1=144.1.2.3 bus2=1487.1.2.3  phases=3 linecode=powersystem_db_lv_NAYY_4x50_SE length = 0.017615995  
new line.3022 bus1=2152.1.2.3 bus2=1144.1.2.3  phases=3 linecode=powersystem_db_lv_NAYY_4x50_SE length = 0.012225129  
new line.587 bus1=2562.1.2.3 bus2=808.1.2.3  phases=3 linecode=powersystem_db_lv_NAYY_4x120_SE length = 0.094246756  
new line.2638 bus1=165.1.2.3 bus2=627.1.2.3  phases=3 linecode=powersystem_db_lv_NAYY_4x50_SE length = 0.009907814  
new line.786 bus1=1144.1.2.3 bus2=917.1.2.3  phases=3 linecode=powersystem_db_lv_NAYY_4x50_SE length = 0.024061722  
new line.936 bus1=1348.1.2.3 bus2=390.1.2.3  phases=3 linecode=powersystem_db_lv_NAYY_4x120_SE length = 0.019539007  
new line.1597 bus1=1949.1.2.3 bus2=1575.1.2.3  phases=3 linecode=powersystem_db_lv_NA2XY_4x240_SE length = 0.004114108  
new line.2898 bus1=165.1.2.3 bus2=627.1.2.3  phases=3 linecode=powersystem_db_lv_NAYY_4x50_SE length = 0.009907814  
new line.1959 bus1=1637.1.2.3 bus2=2195.1.2.3  phases=3 linecode=powersystem_db_lv_NAYY_4x50_SE length = 0.011434494  
new line.1345 bus1=1749.1.2.3 bus2=1079.1.2.3  phases=3 linecode=powersystem_db_lv_NAYY_4x150_SE length = 0.004600783  
new line.84 bus1=693.1.2.3 bus2=742.1.2.3  phases=3 linecode=powersystem_db_lv_NAYY_4x50_SE length = 0.013069466  
new line.1635 bus1=1975.1.2.3 bus2=383.1.2.3  phases=3 linecode=powersystem_db_lv_NAYY_4x50_SE length = 0.005546143  
new line.2949 bus1=814.1.2.3 bus2=434.1.2.3  phases=3 linecode=powersystem_db_lv_NA2XY_4x240_SE length = 0.002340084  
new line.2005 bus1=1877.1.2.3 bus2=2221.1.2.3  phases=3 linecode=powersystem_db_lv_NAYY_4x50_SE length = 0.003181467  
new line.2971 bus1=310.1.2.3 bus2=1998.1.2.3  phases=3 linecode=powersystem_db_lv_NAYY_4x50_SE length = 0.03639944  
new line.3041 bus1=1519.1.2.3 bus2=2234.1.2.3  phases=3 linecode=powersystem_db_lv_NAYY_4x120_SE length = 0.001306457  
new line.2787 bus1=611.1.2.3 bus2=310.1.2.3  phases=3 linecode=powersystem_db_lv_NAYY_4x50_SE length = 0.008737718  
new line.1914 bus1=1181.1.2.3 bus2=2163.1.2.3  phases=3 linecode=powersystem_db_lv_NA2XY_4x240_SE length = 0.006907434  
new line.2107 bus1=2289.1.2.3 bus2=1483.1.2.3  phases=3 linecode=powersystem_db_lv_NAYY_4x50_SE length = 0.011612213  
new line.3063 bus1=248.1.2.3 bus2=220.1.2.3  phases=3 linecode=powersystem_db_lv_NA2XY_4x240_SE length = 0.090864722  
new line.906 bus1=1243.1.2.3 bus2=1304.1.2.3  phases=3 linecode=powersystem_db_lv_NAYY_4x150_SE length = 0.004883643  
new line.1376 bus1=1775.1.2.3 bus2=802.1.2.3  phases=3 linecode=powersystem_db_lv_NA2XY_4x240_SE length = 0.005552092  
new line.2862 bus1=810.1.2.3 bus2=1737.1.2.3  phases=3 linecode=powersystem_db_lv_NAYY_4x50_SE length = 0.001947107  
new line.2991 bus1=2061.1.2.3 bus2=1519.1.2.3  phases=3 linecode=powersystem_db_lv_NAYY_4x120_SE length = 0.013136189  
new line.3043 bus1=191.1.2.3 bus2=2246.1.2.3  phases=3 linecode=powersystem_db_lv_NAYY_4x50_SE length = 0.014204937  
new line.2443 bus1=2481.1.2.3 bus2=2349.1.2.3  phases=3 linecode=powersystem_db_lv_NAYY_4x50_SE length = 0.005799981  
new line.1934 bus1=220.1.2.3 bus2=2178.1.2.3  phases=3 linecode=powersystem_db_lv_NAYY_4x150_SE length = 0.001476031  
new line.3015 bus1=2116.1.2.3 bus2=1348.1.2.3  phases=3 linecode=powersystem_db_lv_NAYY_4x120_SE length = 0.023264328  
new line.2939 bus1=565.1.2.3 bus2=789.1.2.3  phases=3 linecode=powersystem_db_lv_NAYY_4x120_SE length = 0.01876058  
new line.368 bus1=472.1.2.3 bus2=527.1.2.3  phases=3 linecode=powersystem_db_lv_NAYY_4x150_SE length = 0.008473912  
new line.2872 bus1=2451.1.2.3 bus2=2116.1.2.3  phases=3 linecode=powersystem_db_lv_NAYY_4x120_SE length = 0.004238292  
new line.2851 bus1=917.1.2.3 bus2=2399.1.2.3  phases=3 linecode=powersystem_db_lv_NAYY_4x50_SE length = 0.003760393  
new line.993 bus1=1427.1.2.3 bus2=462.1.2.3  phases=3 linecode=powersystem_db_lv_NAYY_4x150_SE length = 0.144544254  
new line.2000 bus1=1084.1.2.3 bus2=2218.1.2.3  phases=3 linecode=powersystem_db_lv_NAYY_4x50_SE length = 0.005001434  
new line.726 bus1=800.1.2.3 bus2=1048.1.2.3  phases=3 linecode=powersystem_db_lv_NAYY_4x120_SE length = 0.018777721  
new line.74 bus1=611.1.2.3 bus2=310.1.2.3  phases=3 linecode=powersystem_db_lv_NAYY_4x50_SE length = 0.008737718  
new line.2150 bus1=2267.1.2.3 bus2=2315.1.2.3  phases=3 linecode=powersystem_db_lv_NAYY_4x50_SE length = 0.012979558  
new line.1571 bus1=1929.1.2.3 bus2=1634.1.2.3  phases=3 linecode=powersystem_db_lv_NAYY_4x50_SE length = 0.006364877  
new line.2901 bus1=1819.1.2.3 bus2=2295.1.2.3  phases=3 linecode=powersystem_db_lv_NAYY_4x50_SE length = 0.005945317  
new line.3034 bus1=1348.1.2.3 bus2=390.1.2.3  phases=3 linecode=powersystem_db_lv_NAYY_4x120_SE length = 0.019539007  
new line.2863 bus1=1749.1.2.3 bus2=1079.1.2.3  phases=3 linecode=powersystem_db_lv_NAYY_4x150_SE length = 0.004600783  
new line.793 bus1=1159.1.2.3 bus2=779.1.2.3  phases=3 linecode=powersystem_db_lv_NAYY_4x50_SE length = 0.011902765  
new line.1463 bus1=1304.1.2.3 bus2=1842.1.2.3  phases=3 linecode=powersystem_db_lv_NAYY_4x150_SE length = 0.007664021  
new line.708 bus1=1018.1.2.3 bus2=825.1.2.3  phases=3 linecode=powersystem_db_lv_NAYY_4x120_SE length = 0.019482519  
new line.3008 bus1=1143.1.2.3 bus2=854.1.2.3  phases=3 linecode=powersystem_db_lv_NAYY_4x50_SE length = 0.007107836  
new line.2842 bus1=1691.1.2.3 bus2=191.1.2.3  phases=3 linecode=powersystem_db_lv_NAYY_4x50_SE length = 0.013433991  
new line.2794 bus1=1542.1.2.3 bus2=1243.1.2.3  phases=3 linecode=powersystem_db_lv_NAYY_4x150_SE length = 0.002957926  
new line.2895 bus1=1585.1.2.3 bus2=1805.1.2.3  phases=3 linecode=powersystem_db_lv_NAYY_4x50_SE length = 0.002515222  
new line.3012 bus1=865.1.2.3 bus2=1159.1.2.3  phases=3 linecode=powersystem_db_lv_NAYY_4x50_SE length = 0.005630497  
new line.1868 bus1=1062.1.2.3 bus2=2135.1.2.3  phases=3 linecode=powersystem_db_lv_NAYY_4x50_SE length = 0.008100316  
new line.785 bus1=819.1.2.3 bus2=1143.1.2.3  phases=3 linecode=powersystem_db_lv_NAYY_4x50_SE length = 0.030498792  
new line.1018 bus1=1451.1.2.3 bus2=839.1.2.3  phases=3 linecode=powersystem_db_lv_NAYY_4x50_SE length = 0.054485089  
new line.2117 bus1=1819.1.2.3 bus2=2295.1.2.3  phases=3 linecode=powersystem_db_lv_NAYY_4x50_SE length = 0.005945317  
new line.2690 bus1=2562.1.2.3 bus2=875.1.2.3  phases=3 linecode=powersystem_db_lv_NAYY_4x120_SE length = 0.130426053  
new line.1880 bus1=165.1.2.3 bus2=2142.1.2.3  phases=3 linecode=powersystem_db_lv_NAYY_4x50_SE length = 0.006702076  
new line.1287 bus1=1706.1.2.3 bus2=995.1.2.3  phases=3 linecode=powersystem_db_lv_NA2XY_4x240_SE length = 0.01074508  
new line.2931 bus1=1929.1.2.3 bus2=1634.1.2.3  phases=3 linecode=powersystem_db_lv_NAYY_4x50_SE length = 0.006364877  
new line.3004 bus1=2093.1.2.3 bus2=1209.1.2.3  phases=3 linecode=powersystem_db_lv_NAYY_4x50_SE length = 0.014294925  
new line.1019 bus1=309.1.2.3 bus2=1451.1.2.3  phases=3 linecode=powersystem_db_lv_NAYY_4x50_SE length = 0.010555149  
new line.1325 bus1=965.1.2.3 bus2=1736.1.2.3  phases=3 linecode=powersystem_db_lv_NAYY_4x120_SE length = 0.015120033  
new line.1273 bus1=1691.1.2.3 bus2=191.1.2.3  phases=3 linecode=powersystem_db_lv_NAYY_4x50_SE length = 0.013433991  
new line.2010 bus1=2178.1.2.3 bus2=2224.1.2.3  phases=3 linecode=powersystem_db_lv_NAYY_4x150_SE length = 0.012741115  
new line.1413 bus1=1805.1.2.3 bus2=1359.1.2.3  phases=3 linecode=powersystem_db_lv_NAYY_4x50_SE length = 0.004526364  
new line.2957 bus1=1605.1.2.3 bus2=1971.1.2.3  phases=3 linecode=powersystem_db_lv_NAYY_4x50_SE length = 0.006442287  
new line.1524 bus1=1244.1.2.3 bus2=1893.1.2.3  phases=3 linecode=powersystem_db_lv_NAYY_4x50_SE length = 0.008341905  
new line.1086 bus1=702.1.2.3 bus2=1517.1.2.3  phases=3 linecode=powersystem_db_lv_NAYY_4x50_SE length = 0.011717507  
new line.1573 bus1=1391.1.2.3 bus2=1930.1.2.3  phases=3 linecode=powersystem_db_lv_NAYY_4x120_SE length = 0.000474041  
new line.2495 bus1=2511.1.2.3 bus2=1261.1.2.3  phases=3 linecode=powersystem_db_lv_NAYY_4x50_SE length = 0.0808181  
new line.89 bus1=514.1.2.3 bus2=655.1.2.3  phases=3 linecode=powersystem_db_lv_NAYY_4x50_SE length = 0.008301453  
new line.3040 bus1=854.1.2.3 bus2=1421.1.2.3  phases=3 linecode=powersystem_db_lv_NAYY_4x50_SE length = 0.015165086  
new line.80 bus1=249.1.2.3 bus2=248.1.2.3  phases=3 linecode=powersystem_db_lv_NAYY_4x150_SE length = 0.003184297  
new line.3029 bus1=472.1.2.3 bus2=2188.1.2.3  phases=3 linecode=powersystem_db_lv_NAYY_4x150_SE length = 0.023340392  
new line.2972 bus1=1998.1.2.3 bus2=309.1.2.3  phases=3 linecode=powersystem_db_lv_NAYY_4x50_SE length = 0.034253857  
new line.3011 bus1=1159.1.2.3 bus2=779.1.2.3  phases=3 linecode=powersystem_db_lv_NAYY_4x50_SE length = 0.011902765  
new line.2058 bus1=2257.1.2.3 bus2=1097.1.2.3  phases=3 linecode=powersystem_db_lv_NAYY_4x50_SE length = 0.008731862  
new line.1713 bus1=2029.1.2.3 bus2=1165.1.2.3  phases=3 linecode=powersystem_db_lv_NAYY_4x120_SE length = 0.004000306  
new line.2877 bus1=565.1.2.3 bus2=749.1.2.3  phases=3 linecode=powersystem_db_lv_NAYY_4x120_SE length = 0.007910206  
new line.1525 bus1=1893.1.2.3 bus2=1694.1.2.3  phases=3 linecode=powersystem_db_lv_NAYY_4x50_SE length = 0.004514322  
new line.1326 bus1=1736.1.2.3 bus2=402.1.2.3  phases=3 linecode=powersystem_db_lv_NAYY_4x120_SE length = 0.011497789  
new line.1204 bus1=1520.1.2.3 bus2=1637.1.2.3  phases=3 linecode=powersystem_db_lv_NAYY_4x50_SE length = 0.011887772  
new line.2978 bus1=391.1.2.3 bus2=965.1.2.3  phases=3 linecode=powersystem_db_lv_NAYY_4x120_SE length = 0.001167149  
new line.2113 bus1=2292.1.2.3 bus2=1708.1.2.3  phases=3 linecode=powersystem_db_lv_NAYY_4x50_SE length = 0.018218778  
new line.402 bus1=165.1.2.3 bus2=627.1.2.3  phases=3 linecode=powersystem_db_lv_NAYY_4x50_SE length = 0.009907814  
new line.875 bus1=220.1.2.3 bus2=1270.1.2.3  phases=3 linecode=powersystem_db_lv_NA2XY_4x240_SE length = 0.009986901  
new line.2924 bus1=1907.1.2.3 bus2=1605.1.2.3  phases=3 linecode=powersystem_db_lv_NAYY_4x50_SE length = 0.015397769  
new line.3030 bus1=1336.1.2.3 bus2=1014.1.2.3  phases=3 linecode=powersystem_db_lv_NAYY_4x50_SE length = 0.018458972  
new line.2968 bus1=527.1.2.3 bus2=865.1.2.3  phases=3 linecode=powersystem_db_lv_NAYY_4x50_SE length = 0.053115589  
new line.1048 bus1=1292.1.2.3 bus2=1481.1.2.3  phases=3 linecode=powersystem_db_lv_NA2XY_4x240_SE length = 0.015227309  
new line.2793 bus1=249.1.2.3 bus2=248.1.2.3  phases=3 linecode=powersystem_db_lv_NAYY_4x150_SE length = 0.003184297  
new line.1440 bus1=1827.1.2.3 bus2=1215.1.2.3  phases=3 linecode=powersystem_db_lv_NAYY_4x50_SE length = 0.002388741  
new line.1307 bus1=1483.1.2.3 bus2=1723.1.2.3  phases=3 linecode=powersystem_db_lv_NAYY_4x50_SE length = 0.006836632  
new line.2208 bus1=2349.1.2.3 bus2=1864.1.2.3  phases=3 linecode=powersystem_db_lv_NAYY_4x50_SE length = 0.004765395  
new line.1350 bus1=655.1.2.3 bus2=1753.1.2.3  phases=3 linecode=powersystem_db_lv_NAYY_4x50_SE length = 0.005739392  
new line.834 bus1=2562.1.2.3 bus2=1224.1.2.3  phases=3 linecode=powersystem_db_lv_NAYY_4x120_SE length = 0.029917255  
new line.1286 bus1=1575.1.2.3 bus2=1706.1.2.3  phases=3 linecode=powersystem_db_lv_NA2XY_4x240_SE length = 0.006630374  